48

C     7.8815367500    2.9596466400   -0.1751885000
N     6.5870907600    2.3128178100   -0.1808659100
C     6.4297724500    1.0328351900    0.2200756700
O     7.3436263200    0.3340515400    0.6204629600
C     5.0246232600    0.4944038400    0.1900371400
C     3.9829538300    0.9664947300   -0.5913110700
C     2.7111450200    0.4355350100   -0.5599425400
C     2.4635013400   -0.6390056500    0.2758911100
C     3.4787155600   -1.1506326000    1.0679270100
C     4.7414726700   -0.5893748700    1.0168886700
N     1.1528615600   -1.1948456800    0.3200277700
C     0.0379720600   -0.4451914900    0.5622648700
S    -0.0465039700    1.0541205300    1.2188034200
N    -1.0603914400   -1.2094410600    0.1662961900
C    -0.6681731700   -2.4401866300   -0.3518240000
O    -1.3976795600   -3.3040880400   -0.7549134000
C     0.8317758500   -2.4651373600   -0.3120581500
C     1.4355108900   -2.7729757900   -1.6992098400
C     1.6117023200   -4.2426355000   -1.2613258400
C     1.3750151500   -3.8135377600    0.2021477600
C    -2.4219679200   -0.8326483700    0.2877638800
C    -2.8894267800    0.3465829900   -0.2657383500
C    -4.2329693100    0.6580754400   -0.1397051600
C    -5.0487051500   -0.2273240400    0.5635038600
N    -4.5993364900   -1.3586527700    1.1003181200
C    -3.3189368500   -1.6595785900    0.9531892400
C    -6.4581799200    0.0377332300    0.7516363500
N    -7.5751349300    0.2526992800    0.8977599200
C    -4.7981902400    1.9260153600   -0.7340639000
F    -5.7687804300    1.6605530400   -1.6166936900
F    -5.3142199800    2.7193530400    0.2114927600
F    -3.8523061300    2.6287565500   -1.3776252400
F     4.1819077500    1.9887879200   -1.4537021500
H     8.1124983900    3.3637714200   -1.1599275000
H     7.9208698300    3.7684436000    0.5546553400
H     8.6226579900    2.2121624700    0.0867459200
H     5.7757200100    2.8207711600   -0.4793555800
H     1.9381588500    0.8785836800   -1.1705006600
H     3.2843421300   -1.9630198400    1.7463288200
H     5.5472780100   -0.9791400000    1.6200501700
H     2.3772797600   -2.2445263000   -1.8194503900
H     0.7922503000   -2.5678203400   -2.5539925500
H     2.5724069000   -4.6961315700   -1.4806514100
H     0.8260230800   -4.8877592400   -1.6394509000
H     0.6798730600   -4.4077812200    0.7896481400
H     2.2951503800   -3.6709999100    0.7586169400
H    -2.2066715400    1.0114257400   -0.7708560200
H    -2.9790852900   -2.5954889600    1.3770324400