53

C     6.4250019300    3.9518227700    0.6404807000
C     5.9174978200    2.5495383200    0.4060412200
O     4.7535081700    2.6371253400   -0.4056222700
C     4.0744784400    1.4879447100   -0.6644299600
C     4.4863994200    0.2239559500   -0.2595404800
C     3.7011620000   -0.8825867100   -0.5608781800
C     2.5041137200   -0.7623725300   -1.2496231600
C     2.1275558600    0.5116586400   -1.6750876600
C     2.8925553300    1.6230073600   -1.3907774300
C     1.6188779500   -1.9611361100   -1.4949012000
C     0.5982120700   -2.1487757000   -0.3956419400
C     0.7449330100   -3.0587120700    0.6504351300
C    -0.1776773300   -3.1323648700    1.6821015600
C    -1.2722944300   -2.2854072300    1.6803289700
C    -1.4623298100   -1.3830531000    0.6405328600
C    -0.5365998200   -1.3458323000   -0.3892665600
C    -2.6127205500   -0.4087663100    0.6560628100
C    -2.2124013500    0.8961610500    1.3359589600
C    -3.3719854400    1.8610963700    1.3024260600
C    -3.8238929600    2.0648003400   -0.1288065200
C    -4.1532459400    0.7181974400   -0.7424197100
O    -3.0146716700   -0.1387201900   -0.6728909700
C    -4.5285737100    0.8190347500   -2.2048471200
O    -4.8871214500   -0.4409970700   -2.7370098500
O    -4.9668958800    2.8829464600   -0.1953976700
O    -3.0273653200    3.1273475600    1.8291746700
O    -1.8504561100    0.7108249300    2.6923173600
Cl    2.0968962900   -4.1613769400    0.6982150900
H     6.6641370300    4.4320641600   -0.3052058000
H     7.3231183800    3.9248716100    1.2551907200
H     5.6718884600    4.5487649400    1.1497073800
H     6.6743651000    1.9462380200   -0.1011843900
H     5.6713337900    2.0660463200    1.3542842300
H     5.4037899900    0.0795918100    0.2848997500
H     4.0424770200   -1.8591564800   -0.2497907200
H     1.2156733600    0.6340738800   -2.2439726300
H     2.5971150300    2.6099828600   -1.7141236300
H     1.0904650000   -1.8265436300   -2.4393526800
H     2.2256095800   -2.8559255700   -1.6017593700
H    -0.0277365700   -3.8450576100    2.4793651400
H    -1.9833059400   -2.3386570600    2.4912199100
H    -0.7194030700   -0.6685762500   -1.2091428500
H    -3.4561669000   -0.8317365000    1.2148905800
H    -1.3801109800    1.3294307400    0.7742333000
H    -4.2052852600    1.4289543900    1.8691349700
H    -2.9962289700    2.5115093100   -0.6936308200
H    -4.9811828700    0.2747212700   -0.1793275800
H    -5.3842669400    1.4804979700   -2.3118924200
H    -3.6842364000    1.2499218200   -2.7517660100
H    -4.1318797900   -1.0219156600   -2.6155438400
H    -4.7822184800    3.6697494800    0.3243412000
H    -2.6928899500    2.9861775400    2.7184897200
H    -1.0601583400    0.1639955700    2.7230612300