48

C     1.2713854900   -2.3837083600    1.8415853800
C     0.6293135800   -2.0424851400    0.5046482300
C    -0.8264664900   -1.6588657400    0.7082993800
O    -1.6856709000   -2.3544871900    1.1749326500
N    -0.9828541800   -0.3632587900    0.2390112600
C     0.2200548300    0.1610010000   -0.2386773500
S     0.4095623800    1.6323324100   -0.9408638100
N     1.1751304100   -0.7866967100   -0.0477947900
C     2.5703513400   -0.5290121600   -0.1155615200
C     3.1077833300    0.5319377300    0.5925404400
C     4.4723455600    0.7247402500    0.5610240700
C     5.3335108800   -0.0810987400   -0.1636922600
C     4.7590641200   -1.1377788500   -0.8669695000
C     3.3984981600   -1.3592025500   -0.8570906600
C     6.8290954600    0.0594879000   -0.2523596700
O     7.5083868000   -0.8893308300   -0.6017647900
N     7.3407687300    1.2747734500    0.0419121600
C     8.7608328600    1.5412874100   -0.0427298000
F     4.9510520000    1.7497687200    1.3032787300
C    -2.2433521300    0.2987921400    0.2345657800
C    -3.3453204900   -0.3656689200   -0.2858848700
C    -4.5846779100    0.2492149400   -0.2928038800
C    -4.7218286400    1.5289567900    0.2479132100
C    -3.6138924300    2.1815665000    0.7813727400
C    -2.3764600700    1.5689659500    0.7697512200
C    -5.9929659300    2.1987276000    0.2725891100
N    -6.9872009500    2.7708428400    0.3149762700
C    -5.7837167100   -0.4634056400   -0.8693857900
F    -6.7345560200   -0.6481554900    0.0565461900
F    -5.4654501100   -1.6740118000   -1.3571487600
F    -6.3315476600    0.2341922300   -1.8744543400
C     0.6716444300   -3.2078128700   -0.4787589300
H     0.7292258600   -3.2053171400    2.3019705800
H     2.3074372300   -2.6773750100    1.6907965400
H     1.2448617100   -1.5257427000    2.5107638600
H     2.4858177600    1.2081835800    1.1576053400
H     5.4237789100   -1.7808878300   -1.4231584600
H     2.9851248900   -2.1623196500   -1.4421400200
H     6.7087204300    2.0091611800    0.2999725800
H     9.1114080400    2.0204992700    0.8700213000
H     9.0010944800    2.1820758900   -0.8915034100
H     9.2682501100    0.5906715100   -0.1672511000
H    -3.2313304500   -1.3675435100   -0.6684921700
H    -3.7267877300    3.1702153100    1.1968153800
H    -1.5051222400    2.0766172300    1.1534714900
H     0.3430982300   -2.8890712000   -1.4661069900
H     1.6703226000   -3.6279170800   -0.5494938700
H    -0.0009723100   -3.9828786100   -0.1193195200