49

C     8.0692656400    0.6462735500   -0.4489148100
O     7.1130751500   -0.3314115700   -0.0750408800
C     5.7909868800    0.0052970600   -0.0853502800
C     5.3516683200    1.2412451200   -0.4796057600
C     3.9747623000    1.5651423100   -0.4744220900
N     3.6020301200    2.8148077500   -0.8807894700
C     2.3249568500    3.0904524700   -0.8487039900
C     1.3080726000    2.2058355300   -0.4391172200
C     1.6704635200    0.9503912900   -0.0434360200
C     3.0473641300    0.5971278300   -0.0514071000
C     3.5241707400   -0.6700745100    0.3411632900
C     4.8539143600   -0.9942923200    0.3364311200
C     5.1666583500   -2.4033947400    0.7893319300
O     4.2639515300   -3.1717626000    1.0689940500
N     6.4650016300   -2.7687369600    0.8789160400
O     0.8253636400    0.0018717900    0.4213658800
C    -0.5331680600    0.0557613200    0.1829214900
C    -1.0474830900    0.2621995700   -1.0839136100
C    -2.4196809100    0.1926920300   -1.2526361800
C    -3.2939945200   -0.0684128200   -0.1906818700
C    -2.7347009200   -0.2742315900    1.0713917400
C    -1.3627049500   -0.2153608500    1.2522250600
N    -4.6601667000   -0.0909745800   -0.4494497200
C    -5.6862984300   -0.4068136000    0.4241994400
O    -5.5213444400   -0.8072058800    1.5579260300
N    -6.9213032400   -0.2446867000   -0.1602686300
C    -8.1159645300   -0.4085213100    0.6273869900
C    -9.2584227500    0.5256458900    0.3986879700
C    -9.3471997100   -0.9193973000   -0.0485140800
Cl   -3.0717537900    0.4526665400   -2.8541779900
H     7.9320198700    0.9610466800   -1.4839028900
H     8.0237015100    1.5168036500    0.2064902900
H     9.0336696500    0.1614778200   -0.3420565400
H     6.0287878100    2.0130412600   -0.8057605800
H     2.0396811400    4.0859455300   -1.1665003000
H     0.2819256600    2.5299039600   -0.4333695000
H     2.8274185300   -1.4274417300    0.6593660500
H     7.1994221300   -2.1454920900    0.6041921900
H     6.6607623900   -3.7073786500    1.1707605700
H    -0.4052795400    0.4729401700   -1.9247966100
H    -3.3932910700   -0.4827467800    1.8934665300
H    -0.9287461600   -0.3867633300    2.2259583500
H    -4.9165367600    0.0481293500   -1.4106064200
H    -6.9736426000    0.4633870200   -0.8744068300
H    -7.9077943200   -0.7391605400    1.6328639300
H    -9.1476584300    1.2824904300   -0.3640895400
H    -9.8390741000    0.8365660500    1.2517307000
H    -9.9887650800   -1.5853406200    0.5047151100
H    -9.2812461700   -1.1238804400   -1.1062337000