44

C    -1.4314688700   -0.2067186100   -2.1014636600
C    -1.0884253000   -0.2587394900   -0.6231432600
C    -2.2388823000   -0.7965170700    0.2452667900
C    -3.4943686600    0.0321415100    0.1796216900
C    -4.5502968900   -0.3286665000   -0.6526441700
C    -5.7009660000    0.4425449600   -0.7262082900
C    -5.8131641700    1.5946618200    0.0372203400
C    -4.7686543100    1.9670127700    0.8716368300
C    -3.6217880400    1.1919871800    0.9399335300
N     0.1020668400   -1.0662913600   -0.4383626800
C     0.9129250500   -0.9118528400    0.6267408700
O     0.7483656200   -0.0452423600    1.4713421300
C     2.0939103300   -1.8788733800    0.6798490800
C     3.2705888000   -1.2814585000   -0.0942414200
C     3.7884208700    0.0363452500    0.4660258600
C     4.9374826300    0.5988404700   -0.3629339500
C     5.4805560600    1.9171340600    0.1661503900
N     6.5198550700    2.4314529300   -0.7253083000
N     1.7157185200   -3.1667012800    0.0872230100
H    -2.2665984000    0.4655974000   -2.2753508700
H    -1.7085207800   -1.1961493300   -2.4714858900
H    -0.5746962500    0.1448945400   -2.6728376900
H    -0.8388270800    0.7368381400   -0.2656694000
H    -2.4523881500   -1.8234186500   -0.0579881400
H    -1.8786113600   -0.8341645800    1.2718165200
H    -4.4691359400   -1.2244203800   -1.2544607600
H    -6.5067287200    0.1436963800   -1.3814359100
H    -6.7074474600    2.1982296300   -0.0161775400
H    -4.8468180600    2.8641798300    1.4688108300
H    -2.8152157100    1.4910203400    1.5947990400
H     0.2200070500   -1.9125299200   -0.9637066100
H     2.3626650600   -1.9659464400    1.7357993400
H     4.0759582400   -2.0209256400   -0.1121361700
H     2.9521408000   -1.1383622600   -1.1291790100
H     2.9723086600    0.7576628700    0.5045566300
H     4.1164848600   -0.1155300500    1.4989273200
H     5.7583525400   -0.1233868900   -0.4070200700
H     4.6064693600    0.7571860500   -1.3903811200
H     5.8311525900    1.7849371800    1.1961150500
H     4.6715076500    2.6476084900    0.1953694600
H     6.8234100100    3.3463317400   -0.4257728000
H     7.3308463600    1.8275362300   -0.6929053500
H     1.1798408400   -3.7163580600    0.7461113100
H     2.5446648200   -3.6925473600   -0.1478128400