73

C    -5.4207139800    4.8019979200   -1.1220018300
N    -5.4878699300    3.4074948000   -0.7340081200
C    -4.1712356700    2.7984152600   -0.7208032400
C    -4.2842431300    1.3230685300   -0.3757700000
N    -4.9093061100    1.1707926900    0.9355258500
C    -6.2397022600    1.7828860600    0.9348131500
C    -6.1147737300    3.2512507300    0.5714506800
C    -4.8998188100   -0.2107276400    1.3911160700
C    -5.7174058000   -1.2055250900    0.5539793700
O    -6.9335815800   -1.1809168800    0.5344612700
N    -5.0095934400   -2.1410124500   -0.1503684100
C    -5.7119166200   -2.9898120700   -1.0967500100
C    -3.6012426100   -2.2442047200   -0.1218297600
C    -2.8537573300   -1.6616806500   -1.1352112600
C    -1.4741600500   -1.6882499300   -1.0982802700
C    -0.8110848600   -2.2938470600   -0.0264662300
C    -1.5665455800   -2.9339578900    0.9595940300
C    -2.9479044100   -2.9159510700    0.9030939400
N     0.5847201000   -2.3004830000    0.0926183500
C     1.2937182900   -1.2000758000    0.0013386300
C     0.6586706000    0.1356782700   -0.1233047600
C    -0.3119920700    0.5193879800    0.7963156600
C    -1.0123107400    1.7002568500    0.6189490000
C    -0.7077341100    2.5324269700   -0.4453786600
C     0.2844608400    2.1754017800   -1.3467537400
C     0.9644734800    0.9796375100   -1.1869640100
C     2.7025230600   -1.3353350500    0.0583118200
C     3.2480975300   -2.6392978300    0.1111144600
N     4.5920065000   -2.5768936500    0.1304424000
C     4.9969951500   -1.2356291400    0.1255291800
C     3.8373400900   -0.4332211000    0.1043837200
C     4.0002808100    0.9493981400    0.1560759500
C     5.2746542300    1.4866874600    0.1673516000
C     6.4035104100    0.6668886900    0.1497973500
C     6.2681578100   -0.7160825400    0.1376268700
C     7.7878639400    1.2068023300    0.1464107000
O     8.7772657500    0.5160091900    0.1495494700
O     7.8337354300    2.5503288400    0.1369726200
C     9.1479385800    3.1182983500    0.1335387400
O     2.5848668300   -3.7538919400    0.1479027100
H    -4.9714702000    4.8842189600   -2.1085382900
H    -6.4248318300    5.2157874000   -1.1701917400
H    -4.8288120900    5.4100526900   -0.4219313200
H    -3.5084293600    3.2922945400    0.0094920900
H    -3.7046531800    2.9103914100   -1.7026728400
H    -3.2907815100    0.8810743800   -0.3601646500
H    -4.8680378800    0.8127615800   -1.1573111800
H    -6.6698550700    1.6820115500    1.9296496300
H    -6.9121732200    1.2789780000    0.2325165100
H    -7.1047306600    3.7041874900    0.5417482900
H    -5.5257911500    3.7691481600    1.3435767800
H    -3.8691902000   -0.5407910000    1.4480949500
H    -5.3108966500   -0.2482309600    2.4011018900
H    -5.4138574300   -2.7414937600   -2.1152472900
H    -6.7779109900   -2.8393126300   -0.9779294700
H    -5.4583732800   -4.0302434100   -0.9082789200
H    -3.3690616600   -1.1723510500   -1.9513128300
H    -0.9123971900   -1.2272797100   -1.8954223800
H    -1.0508351200   -3.4234579400    1.7730807000
H    -3.5425906100   -3.3997067100    1.6668948100
H    -0.5416438200   -0.1207073100    1.6367432800
H    -1.8067670900    1.9466247900    1.3069651000
H    -1.2326114600    3.4657859800   -0.5735911500
H     0.5308884300    2.8302274300   -2.1695762100
H     1.7405612100    0.6884705100   -1.8798469200
H     5.1950210600   -3.3758674300    0.1653842000
H     3.1497405900    1.6096143100    0.1948141500
H     5.3908184700    2.5578345200    0.1939521400
H     7.1419970600   -1.3488332600    0.1370703600
H     9.6971095100    2.7948533200   -0.7469889400
H     9.0076055800    4.1932194700    0.1218241400
H     9.6924625500    2.8138056000    1.0236168200
H     1.5746735700   -3.3915418100    0.1396774000