55

C     8.9629201800    0.2328480600   -0.6781733600
C     8.6908033300    1.0672214600    0.5206490600
C     7.5580106400    0.7145078600   -0.4173612700
C     6.5800868500   -0.2997399200    0.0829567900
O     6.9686852000   -1.3668944100    0.5252379700
N     5.2450249300    0.0127857000    0.0409501800
C     4.2688524300   -1.0688249900    0.1264591300
C     3.0627792000   -0.6385408900    0.9467430600
N     2.5294108300    0.6134013700    0.4389774700
C     3.5042778600    1.6905989300    0.4159191200
C     4.7096564700    1.2847743800   -0.4150236700
C     1.2052904400    0.9218591800    0.3876556600
O     0.7822446600    2.0633034700    0.4418751000
C     0.2178110800   -0.2077836400    0.2883266700
C     0.3168895400   -1.2980932100   -0.5575233600
C    -0.6547684300   -2.2790644800   -0.6143236900
C    -1.7781636700   -2.1472743200    0.1811415800
C    -1.9528248000   -1.0363314000    1.0060914000
C    -0.9518426400   -0.0801611600    1.0356604100
C    -3.2157859400   -0.8969982300    1.8209130700
C    -4.4288694900   -0.7273162500    0.9493748100
N    -5.1455102800   -1.7792144800    0.7681012700
N    -6.2277328400   -1.6919685900   -0.0359283800
C    -6.6743525200   -0.5983921500   -0.7453396700
O    -7.6568221300   -0.6615768600   -1.4601230100
C    -5.8496109700    0.6027266300   -0.5359437100
C    -6.1777031100    1.7836668100   -1.1998937600
C    -5.4100931200    2.9114787000   -1.0114930200
C    -4.3128866100    2.8692400400   -0.1480020200
C    -3.9907347700    1.7079109600    0.5201624400
C    -4.7470244600    0.5472170200    0.3208753800
F     1.3916924600   -1.4222247000   -1.3660421000
H     9.1337586400   -0.8192268800   -0.5196298700
H     9.4796731000    0.6693296200   -1.5187388700
H     8.6818445300    0.5565777100    1.4708094500
H     9.0271200300    2.0917598100    0.5455707800
H     7.1956352300    1.4899515300   -1.0699358000
H     3.9437639700   -1.3488012100   -0.8754761600
H     4.7445860900   -1.9239490900    0.5881479800
H     3.3626680300   -0.5017174100    1.9896394700
H     2.3060797600   -1.4109341200    0.9177873600
H     3.0372335700    2.5750351200   -0.0010809100
H     3.8268701700    1.9227130800    1.4343292500
H     4.4177859400    1.2137444800   -1.4675607600
H     5.4679740700    2.0521643500   -0.3176035800
H    -0.5260304300   -3.1217066200   -1.2761812600
H    -2.5434696300   -2.9078175400    0.1453772300
H    -1.0557719900    0.8247096900    1.6217065900
H    -3.1253164800   -0.0550393700    2.5059042800
H    -3.3797728200   -1.7924619900    2.4170182900
H    -6.7425886200   -2.5491940200   -0.1433162600
H    -7.0337821100    1.7905771500   -1.8558508100
H    -5.6608902200    3.8247122300   -1.5303183900
H    -3.7066310500    3.7506742200    0.0018680500
H    -3.1615994400    1.7017303500    1.2083117300