62

C    -5.4422118100   -2.5810452000   -0.1940260700
C    -4.4738922000   -1.4346994200   -0.1115324600
C    -4.8628816400   -0.1380375900   -0.0778053000
C    -3.8915657500    0.9506041100   -0.0900666700
O    -4.2211366700    2.1260326400   -0.0641721000
N    -2.5367513300    0.6044110300   -0.1473648000
C    -2.1167693800   -0.6961853900   -0.0438857000
N    -0.8060576200   -0.9216380600    0.0572447400
C    -0.4108024400   -2.1868981100    0.1225188800
N    -1.2182375000   -3.2697015800    0.1063848300
C    -2.5052865300   -3.0155694100    0.0246619600
C    -3.0609611200   -1.7310688700   -0.0502096500
N     0.9008038900   -2.5029008800    0.2058234600
C     2.0680086700   -1.7254843800    0.2277764000
N     3.1632456500   -2.4336978800    0.0055948800
C     4.3416207500   -1.8113656100    0.0026247800
C     4.4916568000   -0.4473752600    0.2229881800
C     3.3226544000    0.2760596700    0.4703776300
C     2.0983006600   -0.3569679600    0.4890237400
N     5.7410880000    0.2056768300    0.2450367800
C     6.9173654800   -0.6544733300    0.2695900300
C     8.1634145900    0.1691334500    0.5449052200
N     8.3005694300    1.1895224700   -0.4823486500
C     7.1505261600    2.0800424600   -0.4642428100
C     5.8950279500    1.2732561100   -0.7453499600
C    -1.5269902600    1.6845553500   -0.1929695100
C    -1.7265819700    2.7451370700   -1.2994081600
C    -1.7440642100    4.0942325900   -0.5690062800
C    -0.9271967200    3.8266323700    0.6955475100
C    -1.4189723700    2.4499987300    1.1318606900
C    -6.3100033600    0.2824231300   -0.0225537700
O    -7.0869188700   -0.0676671600   -0.8771887600
C    -6.7373402200    1.0914647400    1.1720669700
H    -5.1664387500   -3.2499042600   -1.0091717900
H    -5.4238064500   -3.1631972000    0.7283443300
H    -6.4545686800   -2.2375442300   -0.3658472400
H    -3.1445106300   -3.8868399200    0.0217563200
H     1.0990066200   -3.4868095200    0.1381035300
H     5.1950695600   -2.4393405400   -0.1987269900
H     3.3940531400    1.3353947600    0.6702786900
H     1.1828077100    0.1669628700    0.7024500500
H     6.7946614300   -1.3935137500    1.0587579400
H     7.0428901800   -1.1811493700   -0.6855907400
H     8.0857666200    0.5972912600    1.5534765300
H     9.0289960800   -0.4927799100    0.5256354000
H     9.1602122800    1.7035810700   -0.3664905100
H     7.2594969500    2.8452485500   -1.2321115100
H     7.0295814200    2.5907524900    0.5006159200
H     5.9529882900    0.8549117400   -1.7569231200
H     5.0246403300    1.9210715300   -0.7071439100
H    -0.5944673300    1.1688665600   -0.3745995100
H    -0.8772124400    2.6997838200   -1.9800626800
H    -2.6250915000    2.5673350400   -1.8796731500
H    -1.3444065900    4.9044802500   -1.1752083200
H    -2.7655537100    4.3501529600   -0.2957768800
H     0.1347774200    3.7768643400    0.4464258100
H    -1.0525878000    4.5888031400    1.4615140000
H    -2.4050322600    2.5260264800    1.5887441600
H    -0.7586409200    1.9458310900    1.8371883000
H    -6.5603553600    0.5049454700    2.0739929500
H    -7.7884492700    1.3505951900    1.0956624000
H    -6.1178387300    1.9836481300    1.2432697200