105

C     2.2637889600    6.0797304600    1.2419830300
C     1.0340694400    6.5456339100    0.4677287600
C     0.5784301400    5.5647146900   -0.6102697900
C     1.5307636400    5.4707268300   -1.7995139700
C     1.1665649700    4.3845488100   -2.8119787700
C     1.2413875200    2.9600511700   -2.2637567100
C     2.6353560600    2.5386874600   -1.8101964100
C     2.6950639400    1.1541064300   -1.1774620900
C     1.8908123600    1.0089086900    0.1084064400
C     2.1749424400    2.0554156700    1.1828627900
C     3.6437382300    2.2207771100    1.5518294700
C     4.2786036300    0.9406098400    2.0822153400
C     5.6951004500    1.1079438300    2.6209023700
C     6.6931914200    1.7303243600    1.6394854400
C     6.6440185400    1.1222567000    0.2383928000
C     6.7306214700   -0.3786535600    0.2725672700
O     7.5015042500   -1.0264375300    0.9246821700
O     5.8008421400   -0.9324345300   -0.5448889800
C     5.4581402100   -2.3080213200   -0.2936352400
C     5.8970942700   -3.1847127300   -1.4579590400
C     4.9916912700   -3.0792677600   -2.6988867600
C     3.8867025500   -2.0498249300   -2.4987547700
N     3.2177910900   -2.2815297900   -1.2168298700
C     3.9710194000   -2.3251527800   -0.0920102100
N     3.5022485500   -2.3231320800    1.1105753200
C     2.1391468200   -2.3855780100    1.2387348500
C     1.2961387200   -2.5051783700    0.1761445500
C     1.8244817400   -2.4006757400   -1.1661013900
O     1.1503019800   -2.3937623400   -2.1852282100
C    -0.1870651600   -2.6353331600    0.3013263400
C    -0.8563094700   -1.2591718800    0.1477067300
N    -2.3008383600   -1.2189289100    0.2377351200
C    -2.9613752100   -1.9471815300   -0.8305329000
C    -4.4479684300   -1.6502845200   -0.8343517900
C    -5.0718692700   -1.9929718400    0.5183539300
C    -4.2935195300   -1.3036176400    1.6383867300
C    -2.8136815800   -1.6144115800    1.5351472100
C    -6.5146242200   -1.6084869000    0.5561749500
N    -7.4315243800   -2.5031402400    0.7438692200
O    -8.6800987600   -1.8539745300    0.7316618200
C    -8.4602411900   -0.5414256800    0.5295883200
C    -7.0977564000   -0.2987057800    0.4065801500
C    -6.6452653300    1.0031204600    0.1917435900
C    -7.5730342100    2.0201794000    0.1070331000
C    -8.9332306500    1.7228139100    0.2375865800
C    -9.4263181900    0.4551842500    0.4499740300
F    -9.8132200000    2.7349177500    0.1501370200
C     1.6341269300   -2.2770107400    2.6427936800
H     3.1193385400    5.9210287100    0.5862533300
H     2.0630018400    5.1412116400    1.7581638500
H     2.5547342600    6.8123012100    1.9924121600
H     1.2345930300    7.5156383600    0.0096266700
H     0.2149360600    6.7038921900    1.1692789300
H    -0.4097740400    5.8571211100   -0.9706888300
H     0.4602250100    4.5808039300   -0.1530594500
H     2.5459456400    5.2985857100   -1.4397990400
H     1.5504443700    6.4377924400   -2.3061974700
H     0.1563957600    4.5693940000   -3.1829686400
H     1.8271355200    4.4693310800   -3.6772992700
H     0.5475884800    2.8740292400   -1.4269195800
H     0.8905116600    2.2607383900   -3.0260029400
H     3.0133887500    3.2611961300   -1.0882138200
H     3.3222482400    2.5678659200   -2.6592892800
H     2.3487926600    0.4175114200   -1.9044892900
H     3.7349133800    0.8984083900   -0.9696066500
H     2.0950215100    0.0298924200    0.5265906300
H     0.8251903800    1.0304172400   -0.1297733400
H     1.6187436700    1.7826543300    2.0818165800
H     1.7849115100    3.0195746600    0.8508186300
H     3.7431021500    3.0181334300    2.2928825400
H     4.1956961900    2.5499116000    0.6719761200
H     4.2765996800    0.1997594200    1.2874968200
H     3.6490915500    0.5125717800    2.8640845100
H     6.0638361900    0.1319850800    2.9378849100
H     5.6635617500    1.7343958800    3.5123880600
H     6.4975866400    2.7976622400    1.5433232000
H     7.6985559600    1.6216051300    2.0403311300
H     5.7291341500    1.3961399800   -0.2715460600
H     7.4797003800    1.4727803800   -0.3668997500
H     5.9375239700   -2.6172136200    0.6293455300
H     5.9148698900   -4.2106080800   -1.0932231100
H     6.9256723200   -2.9134066900   -1.6883537100
H     4.5344998400   -4.0444823400   -2.9135724100
H     5.5744639600   -2.7990230700   -3.5731116600
H     4.3125779600   -1.0513353800   -2.4838587100
H     3.1226532000   -2.1004301100   -3.2626629400
H    -0.5486123500   -3.2936619700   -0.4844497100
H    -0.4492459300   -3.0712969600    1.2625400300
H    -0.4536518200   -0.5933011400    0.9127244000
H    -0.5577551600   -0.8542567700   -0.8175868500
H    -2.8180714600   -3.0326290100   -0.7254936600
H    -2.5209900300   -1.6627216900   -1.7837164800
H    -4.9403764000   -2.2160685500   -1.6233834800
H    -4.6030266400   -0.5926732700   -1.0483897700
H    -5.0274811100   -3.0712255100    0.6669449300
H    -4.6749734400   -1.6226377900    2.6068150800
H    -4.4393408100   -0.2253895000    1.5718794400
H    -2.2711862800   -1.0820634000    2.3141612300
H    -2.6623815400   -2.6885935400    1.7193474400
H    -5.5941549800    1.2262272300    0.0919870300
H    -7.2809134600    3.0458229700   -0.0582994000
H   -10.4837329900    0.2705327700    0.5447906800
H     0.9007341700   -1.4765739500    2.7187822000
H     1.1482916500   -3.1971927000    2.9593681600
H     2.4651511900   -2.0618936900    3.3049709600