62

C    -6.3773167800   -2.4252431300    1.3754948300
N    -6.7713764500   -1.5031278100    0.3256594900
C    -8.1949271200   -1.4464195700    0.0502700100
C    -5.9609837300   -0.5646695100   -0.2340642700
O    -6.3949171100    0.3962501100   -0.8559660600
C    -4.4967237300   -0.7981216000   -0.0874369100
C    -3.8074479400   -1.9722803100   -0.2065557300
C    -2.4212473800   -1.6373555800   -0.1976187300
C    -1.1904496100   -2.2739278300   -0.2952693700
N    -0.0408877800   -1.6125868900   -0.2587236600
C    -0.1090077300   -0.2725877000   -0.1310292100
N    -1.2170317700    0.4697244700   -0.0363706900
C    -2.3477182100   -0.2285064200   -0.0559504100
N    -3.6069819400    0.2660407300    0.0354055800
C    -3.9653610100    1.6752795700    0.2128878900
C    -3.3261329000    2.3312277200    1.4435757300
C    -3.3637387600    3.8126199700    1.0842862800
C    -2.9092918200    3.8126689500   -0.3786668400
C    -3.5797833200    2.5696662500   -0.9881044200
N     1.0350937400    0.4677827200   -0.0856454500
C     2.3970299500    0.1557809600   -0.1185768800
N     3.1629575200    1.2265520800    0.0405248500
C     4.4872438200    1.0762705600    0.0266589600
C     5.1267439500   -0.1462490900   -0.1397421700
C     4.2987946000   -1.2600464600   -0.3050774200
C     2.9278294000   -1.1231846600   -0.3029787100
N     6.5296652900   -0.2937444200   -0.1836122100
C     7.3025237900    0.9372152700   -0.2670740000
C     8.7588753500    0.6233260500   -0.5627949500
N     9.2856547600   -0.2438075900    0.4797507600
C     8.5420742500   -1.4935687500    0.5219126300
C     7.0850907000   -1.1931851200    0.8272696100
H    -7.1372924000   -2.4104090200    2.1551452400
H    -5.4230838000   -2.1328318000    1.8024926100
H    -6.3042702700   -3.4480877800    1.0042530700
H    -8.7421483300   -1.0614540400    0.9116110700
H    -8.5558931700   -2.4516914000   -0.1625044800
H    -8.3703206700   -0.8011924400   -0.8004663600
H    -4.2701371200   -2.9347807400   -0.3168221800
H    -1.1119560500   -3.3453345300   -0.4063241400
H    -5.0409873700    1.6802334400    0.3318103400
H    -3.8563302200    2.0803186600    2.3601084000
H    -2.2972992700    1.9959543700    1.5442799600
H    -2.7412943300    4.4261722300    1.7317452000
H    -4.3885080300    4.1779304700    1.1603908600
H    -3.1559697300    4.7281013900   -0.9105231700
H    -1.8270996900    3.6903059700   -0.4140325900
H    -2.9005025500    2.0499127600   -1.6574615200
H    -4.4706918800    2.8228245200   -1.5568490400
H     0.8839867100    1.4549723300    0.0262129300
H     5.0531102500    1.9829993400    0.1700638600
H     4.7484457100   -2.2308173200   -0.4567632000
H     2.2603739500   -1.9564513500   -0.4351264200
H     7.2422466500    1.5064188200    0.6701713400
H     6.8986411300    1.5509555600   -1.0695265900
H     8.8239982200    0.1664923600   -1.5596744300
H     9.3193114200    1.5579449300   -0.5828510300
H    10.2705617000   -0.4112982900    0.3443730400
H     8.5933958200   -2.0448458600   -0.4267162600
H     8.9430324600   -2.1394350400    1.3023844800
H     6.5127141100   -2.1154362600    0.8359708000
H     7.0095114400   -0.7453935600    1.8252683700