47

C    -4.1507466100   -1.3174744300   -1.4858579700
C    -5.5947995200   -1.4948815100   -1.0618872900
O    -6.0584190000   -0.3238461600   -0.4271690900
C    -5.3489197800   -0.0962689700    0.7645394800
C    -3.8289234900   -0.2357292300    0.6973834100
O    -3.1501818600    0.2688837000    1.5691529500
N    -3.3201744500   -0.9752502200   -0.3314990900
C    -1.9223167700   -1.2160630000   -0.4337681600
C    -1.2806172200   -1.1043367600   -1.6612616500
C     0.0891321300   -1.2881107400   -1.7685374500
C     0.8411543400   -1.5794446600   -0.6378836300
C     0.1882851900   -1.7775071600    0.5763628300
C    -1.1742129700   -1.5586084000    0.6849980500
N     2.2501525000   -1.5764089000   -0.6983981100
C     3.1020480600   -2.2450892000    0.2720919500
C     4.4381994000   -1.5526421900    0.0248686200
O     4.3123992100   -0.9984596000   -1.2904762200
C     2.9924574600   -0.8458314700   -1.5967236900
O     2.6297293400   -0.1495341500   -2.5019976400
C     4.7402278900   -0.4314806800    1.0231929600
N     3.6975711300    0.5687773400    1.0613034400
C     2.6091276500    0.4544631600    1.8769529100
O     2.5644352500   -0.3223757900    2.8197301000
C     1.4491198200    1.2883090900    1.5253744900
C     0.3661954900    1.4902314900    2.3275588300
C    -0.7079298500    2.1390146800    1.6659084800
C    -0.3999074700    2.3897333500    0.3662151800
S     1.1934950900    1.8941163400   -0.0715273200
Cl   -1.4406623200    3.0554523000   -0.8263375200
H    -4.0873317200   -0.5274827800   -2.2364640500
H    -3.7709285200   -2.2404908000   -1.9199122200
H    -6.2213335900   -1.6586516500   -1.9351217400
H    -5.6915700700   -2.3546624600   -0.3870646600
H    -5.5655472800    0.9124445200    1.1008784200
H    -5.6838306400   -0.7857990100    1.5467811000
H    -1.8348516200   -0.8281083900   -2.5460366900
H     0.5753122800   -1.1637555300   -2.7202403100
H     0.7296688600   -2.0497020200    1.4662281800
H    -1.6486081900   -1.6249242000    1.6511569000
H     2.7583601500   -2.0851248700    1.2892773700
H     3.1597011000   -3.3144475100    0.0718539000
H     5.2706553200   -2.2482694000   -0.0030171200
H     4.8478000200   -0.8510156700    2.0215208200
H     5.6775237000    0.0366627900    0.7246477800
H     3.6399177700    1.2317252800    0.3074445200
H     0.3472857500    1.1285014700    3.3426654100
H    -1.6695714100    2.3569749000    2.0964717500