27

C    -4.2125507900   -1.4652969000   -0.0000000500
C    -2.9752843600   -2.0802812800   -0.0000000900
C    -1.8569043100   -1.2559439800   -0.0000000900
C    -2.0141143100    0.1264811300   -0.0000000400
C    -3.2339371600    0.7643989800    0.0000000000
C    -4.3474498900   -0.0669652400    0.0000000000
C    -5.7237007100    0.4983134400    0.0000000600
O    -6.7399714300   -0.1447211600    0.0000000600
O    -5.7279144600    1.8499354600    0.0000001300
O    -0.7619133400    0.6837222200   -0.0000000400
C     0.0736990800   -0.3934780600   -0.0000000800
N    -0.4966912000   -1.5484751000   -0.0000001100
C     1.5132957800   -0.1322635200   -0.0000000600
C     2.3766760500   -1.2176002900   -0.0000000200
C     3.7367671400   -0.9837744500    0.0000000100
C     4.2508913700    0.3039097400    0.0000000000
C     3.3631459300    1.3679419500   -0.0000000400
C     1.9950070000    1.1717238800   -0.0000000700
Cl    3.9827467500    2.9888335900   -0.0000000400
Cl    4.8274911600   -2.3316456700    0.0000000600
H    -5.1159377500   -2.0530150900   -0.0000000500
H    -2.8783900900   -3.1546860600   -0.0000001300
H    -3.3335756400    1.8346531700    0.0000000300
H    -6.6549332000    2.1144963600    0.0000001600
H     1.9752484700   -2.2178099100   -0.0000000200
H     5.3140720100    0.4759296600    0.0000000300
H     1.3202696100    2.0133860900   -0.0000001000