111

C    -7.7492352400    3.8068644000   -0.9556522300
C    -8.6879162600    2.5994112300   -0.9887429100
C    -9.3681033100    2.3806997400    0.3593174500
C    -8.3728420800    2.1439003000    1.4818165000
C    -7.3133935200    1.1479035100    1.1054126200
C    -7.1028798600    0.7724219000   -0.1583948300
C    -7.9020575600    1.3263538900   -1.3172525400
C    -6.0683701900   -0.2369757300   -0.5412898000
C    -5.0330570300    0.1088481900   -1.4122717800
C    -4.0231797200   -0.7868354900   -1.7197434400
C    -4.0798105000   -2.0767254400   -1.2133835700
C    -5.1149413800   -2.4588429200   -0.3736930600
C    -6.0961026400   -1.5373486200   -0.0446798300
Cl   -2.8471692500   -3.2259067700   -1.6417095200
C    -6.5409331500    0.6417285600    2.2917485200
N    -5.9701219800    1.7456061400    3.0771187300
C    -5.1700208900    1.2395590100    4.1835885200
C    -3.9211333400    0.4543966500    3.7699848200
N    -3.1700054800    1.0672403100    2.6685365300
C    -3.9296772000    1.8341654000    1.6739439100
C    -5.1014755000    2.5892913900    2.2713583800
C    -2.1077289600    0.3290511000    2.1745580600
C    -1.6768418800    0.4607393300    0.8527622500
C    -0.6468029000   -0.3010451000    0.3349163900
C    -0.0763813100   -1.3307983900    1.0986197100
C    -0.4224977300   -1.3753028400    2.4471266600
C    -1.4125325700   -0.5827276500    2.9757447100
C     0.7971840500   -2.3469802900    0.4645732000
O     1.2076492200   -2.2866264700   -0.6672568800
N     1.1678219600   -3.4209259700    1.2763192200
S     2.6085232600   -4.2406491300    1.0725208400
O     2.7031627800   -5.0533834300    2.2468632800
O     2.6637177600   -4.8039483700   -0.2314772200
C     3.7683465100   -2.9154711800    1.1856712500
C     4.1434520100   -2.2325415400    0.0540101900
C     5.0181610600   -1.1617141100    0.1756841000
C     5.4035452700   -0.6562754600    1.4343935900
C     5.0269713700   -1.4160495800    2.5602776600
C     4.2292741500   -2.5264646100    2.4422020700
N     6.1051833500    0.4949288400    1.6504439200
C     5.7660103200    1.7637806600    1.0005205000
C     6.9014743900    2.7754478800    1.1220992200
C     6.3804891200    4.1680670300    0.7849898200
C     5.7990089400    4.1656238900   -0.6268221600
O     6.5045023000    3.2798654500   -1.5005963900
C     7.8813309600    3.1436513000   -1.1704966800
C     8.0742171500    2.4610453000    0.1835475100
N     5.6147219100   -0.6831159400   -1.0718950800
O     6.6795115000   -0.0918762100   -1.0167634800
O     5.0324259000   -0.9409700600   -2.1018470600
O    -0.3495890400   -0.0491436400   -0.9645437300
C     0.9123975900    0.3714166300   -1.3704054300
C     1.8517529800    0.9201539500   -0.4987592100
N     3.0245005000    1.4015808300   -0.9121841700
C     3.2393158800    1.3592187800   -2.2147164000
C     2.3863972100    0.7789641400   -3.1839386500
C     1.1854924900    0.2528173400   -2.7188046000
C     3.0481287500    0.8979843800   -4.4484794600
C     4.2247793000    1.5409810200   -4.2068391500
N     4.3401948100    1.8450737900   -2.8756709100
C    -9.7436052800    2.8274405000   -2.0635565100
H    -7.3302002000    3.9871425900   -1.9453127600
H    -8.2926733900    4.7006331100   -0.6510165900
H    -6.9198581700    3.6644679500   -0.2647431500
H   -10.0042760300    3.2355776700    0.5903896800
H   -10.0149641800    1.5045742600    0.2640447300
H    -8.8778744200    1.7908105800    2.3840492900
H    -7.8873735700    3.0756891600    1.7818316600
H    -8.5916075600    0.5473065500   -1.6626607100
H    -7.2301093000    1.5181745700   -2.1559416600
H    -5.0102164500    1.1011518300   -1.8415471800
H    -3.1860071800   -0.4949435800   -2.3369858300
H    -5.1474603600   -3.4639607900    0.0199485500
H    -6.8981161600   -1.8295279900    0.6198795300
H    -5.7778280400   -0.0669390800    1.9685593200
H    -7.2206634500    0.0972824600    2.9550571400
H    -4.8702100000    2.0852448700    4.8019188600
H    -5.7910568200    0.5951429500    4.8044342000
H    -3.2747751100    0.4005585800    4.6421239100
H    -4.2005977300   -0.5715114500    3.5031102700
H    -4.2973295900    1.1777517600    0.8859772500
H    -3.2581023000    2.5641950900    1.2288409400
H    -4.7329469300    3.4041355100    2.8959597200
H    -5.6791167400    3.0244030500    1.4608086200
H    -2.1695646900    1.1252083400    0.1678507700
H     0.1256461700   -2.0162335900    3.1253585200
H    -1.6451211700   -0.6900881500    4.0211728900
H     0.6692612700   -3.6192697200    2.1226182700
H     3.7482050900   -2.5131942800   -0.9067832300
H     5.3614092100   -1.0861151600    3.5357103600
H     3.9471651400   -3.1154501300    3.3046090100
H     6.3706377700    0.6165112500    2.6110237100
H     5.5440730200    1.5574041000   -0.0328785200
H     4.8609452000    2.1848028600    1.4500221200
H     7.2515394500    2.7699852500    2.1561554300
H     5.6102425500    4.4855292900    1.4859844000
H     7.2030746300    4.8824743300    0.8445942500
H     4.7709887900    3.8043344300   -0.6012321200
H     5.8090872200    5.1712665400   -1.0554299200
H     8.3267603900    2.5628285800   -1.9726233500
H     8.3418268800    4.1402013900   -1.1717671300
H     9.0078561800    2.8256119300    0.6141290700
H     8.1660774900    1.3861533100    0.0587799600
H     1.6482739700    0.9668044400    0.5636012500
H     0.4765587300   -0.2523120800   -3.3572374700
H     2.7101376300    0.5406608100   -5.4042524600
H     5.0115096700    1.8148504300   -4.8880920300
H     5.1648565000    2.2546945600   -2.4578149400
H   -10.4596837200    2.0074980100   -2.0826663100
H   -10.2875777900    3.7517390900   -1.8740205900
H    -9.2851066000    2.9007124700   -3.0497166600