64

C     7.2738259400    2.6431083500   -2.6306840200
C     6.2156220300    2.7770683700   -1.8447947700
C     6.2454453400    2.1957205300   -0.4690822200
O     7.2808694500    1.7644391400    0.0078587100
N     5.0726280800    2.1895642400    0.2437369500
C     3.7492597100    2.0704678800   -0.3491485500
C     3.3165864300    0.6099903600   -0.4251316100
C     3.3874574600   -0.0253156000    0.9672309400
C     4.7766897900    0.1655891500    1.5717593100
C     5.1200655100    1.6467717200    1.5924944100
C     2.9823127600   -1.4915756100    0.9816975700
C     3.8467560000   -2.4147466100    0.1308703900
C     3.2319791100   -3.8052667200    0.0926588100
N     1.9391403300   -3.7184470800   -0.5772896500
C     1.1061614000   -2.7108419400   -0.1325905700
C    -0.2692373300   -2.5323962700   -0.2464565400
C    -0.5062639800   -1.2983659700    0.4456334000
N     0.6259298400   -0.7914350100    0.9025113100
N     1.6003583300   -1.6499652000    0.5239564700
C    -1.7473583600   -0.5258458800    0.6682058400
C    -2.9968530600   -1.1294882400    0.7590196700
C    -4.1380748900   -0.3638023200    0.9443644400
C    -4.0200985500    1.0122132500    1.0561296100
C    -2.7778351700    1.6286784800    1.0052023800
C    -1.6484901600    0.8552905800    0.8168431400
O    -5.1107346100    1.8138128300    1.3006920500
C    -6.2058935000    1.7559639300    0.4697616100
C    -7.4057708500    2.1990902400    1.0119482900
C    -8.5441420900    2.2205345600    0.2269094100
C    -8.4941222400    1.8151932800   -1.0997353000
C    -7.2892090700    1.3896542200   -1.6342404400
C    -6.1392433600    1.3556589300   -0.8576075500
C    -1.1596742200   -3.4370587900   -0.9923627800
O    -2.3562879500   -3.5462431700   -0.8140370200
N    -0.5149150800   -4.2343031200   -1.9302065700
H     8.1520047300    2.1245487500   -2.2735950900
H     7.2915092600    3.0536720900   -3.6299595400
H     5.3501876500    3.3255263100   -2.1805250000
H     3.0510810300    2.6365094700    0.2686699200
H     3.7239284200    2.5184356400   -1.3352677800
H     3.9816606300    0.0789868400   -1.1053642400
H     2.3067553700    0.5410593100   -0.8275009100
H     2.6697202100    0.4961915400    1.6024290800
H     5.5295517000   -0.3458842800    0.9707430700
H     4.8186834700   -0.2423290400    2.5824984000
H     6.1111541600    1.8153920800    1.9925980000
H     4.3997401600    2.1922917100    2.2037669000
H     3.0233329000   -1.8436959100    2.0175401200
H     3.9186115900   -2.0387776100   -0.8881043800
H     4.8494752000   -2.4659563200    0.5477936900
H     3.1364908400   -4.1962286900    1.1119960000
H     3.8707892800   -4.4823812000   -0.4703321200
H     1.4462669600   -4.5899080800   -0.6813743600
H    -3.0799403200   -2.1975173000    0.6634478300
H    -5.1079327100   -0.8350611200    0.9805191300
H    -2.7211870300    2.7018517800    1.1064739900
H    -0.6706033000    1.3131143300    0.7882727400
H    -7.4123340400    2.5177141300    2.0423620500
H    -9.4775012800    2.5583360500    0.6537318200
H    -9.3859639300    1.8359672900   -1.7073403600
H    -7.2306788000    1.0739272600   -2.6654789100
H    -5.2023160000    1.0245207700   -1.2761085100
H     0.3008953100   -3.8389695000   -2.3696958700
H    -1.1452142200   -4.7211546600   -2.5463366800